Version 4
SHEET 1 1116 680
WIRE 784 -16 752 -16
WIRE 896 -16 864 -16
WIRE 240 0 208 0
WIRE -16 32 -64 32
WIRE 80 32 64 32
WIRE -64 48 -64 32
WIRE 624 64 560 64
WIRE 720 64 704 64
WIRE 80 96 80 32
WIRE 128 96 128 0
WIRE 128 96 80 96
WIRE 160 96 128 96
WIRE 720 96 720 64
WIRE 752 96 752 -16
WIRE 752 96 720 96
WIRE 800 96 752 96
WIRE 240 112 240 0
WIRE 240 112 224 112
WIRE 272 112 240 112
WIRE 368 112 352 112
WIRE 400 112 368 112
WIRE 416 112 400 112
WIRE 592 112 496 112
WIRE 896 112 896 -16
WIRE 896 112 864 112
WIRE 992 112 896 112
WIRE -16 128 -64 128
WIRE 80 128 64 128
WIRE 160 128 80 128
WIRE 752 128 720 128
WIRE 800 128 752 128
WIRE -64 144 -64 128
WIRE 400 160 400 112
WIRE 592 160 592 112
WIRE 624 160 592 160
WIRE 720 160 720 128
WIRE 720 160 704 160
WIRE -64 240 -64 224
WIRE 368 240 368 112
WIRE 368 240 240 240
WIRE 80 256 80 128
WIRE 176 256 160 256
WIRE 400 256 400 240
WIRE 416 256 400 256
WIRE 560 256 560 64
WIRE 560 256 496 256
WIRE 784 256 752 256
WIRE 896 256 864 256
WIRE 256 272 240 272
WIRE 160 352 160 256
WIRE 256 352 256 272
WIRE 256 352 160 352
WIRE 400 352 400 256
WIRE 416 352 400 352
WIRE 624 352 496 352
WIRE 720 352 704 352
WIRE 720 368 720 352
WIRE 752 368 752 256
WIRE 752 368 720 368
WIRE 800 368 752 368
WIRE 896 384 896 256
WIRE 896 384 864 384
WIRE 992 384 896 384
WIRE 400 400 400 352
WIRE 528 400 400 400
WIRE 752 400 720 400
WIRE 800 400 752 400
WIRE 400 416 400 400
WIRE 560 448 560 256
WIRE 624 448 560 448
WIRE 720 448 720 400
WIRE 720 448 704 448
WIRE 400 528 400 496
WIRE 528 544 528 400
WIRE 992 544 528 544
FLAG -64 240 0
FLAG 400 528 0
FLAG -64 48 0
FLAG 752 208 0
FLAG 752 480 0
FLAG 992 112 VAIN_1
FLAG 992 384 VAIN_2
FLAG 992 544 VAIN_3
FLAG 192 80 VDD
FLAG 192 144 0
FLAG 832 80 VDD
FLAG 832 352 VDD
FLAG 832 144 0
FLAG 832 416 0
FLAG 208 288 VDD
FLAG 208 224 0
FLAG -64 128 VDD
SYMBOL res 224 -16 R90
WINDOW 0 0 56 VBottom 2
WINDOW 3 -19 6 VTop 2
SYMATTR InstName R1
SYMATTR Value 10k
SYMBOL res 176 240 R90
WINDOW 0 0 56 VBottom 2
WINDOW 3 32 56 VTop 2
SYMATTR InstName R2
SYMATTR Value 10k
SYMBOL res 80 16 R90
WINDOW 0 0 56 VBottom 2
WINDOW 3 32 56 VTop 2
SYMATTR InstName R3
SYMATTR Value 10k
SYMBOL res 384 400 R0
WINDOW 0 -54 39 Left 2
WINDOW 3 -73 67 Left 2
SYMATTR InstName Rref
SYMATTR Value 1.62k
SYMBOL res 80 112 R90
WINDOW 0 0 56 VBottom 2
WINDOW 3 32 56 VTop 2
SYMATTR InstName R5
SYMATTR Value 10k
SYMBOL res 368 96 R90
WINDOW 0 0 56 VBottom 2
WINDOW 3 32 56 VTop 2
SYMATTR InstName R6
SYMATTR Value 3.3k
SYMBOL res 384 144 R0
WINDOW 0 39 29 Left 2
WINDOW 3 35 53 Left 2
SYMATTR InstName Rtd
SYMATTR Value {R}
SYMBOL voltage -64 128 R0
WINDOW 123 0 0 Left 0
WINDOW 39 0 0 Left 0
WINDOW 0 36 66 Left 2
WINDOW 3 37 94 Left 2
SYMATTR InstName V1
SYMATTR Value 3.3
SYMBOL res 720 48 R90
WINDOW 0 0 56 VBottom 2
WINDOW 3 32 56 VTop 2
SYMATTR InstName R8
SYMATTR Value 10k
SYMBOL res 608 176 R270
WINDOW 0 32 56 VTop 2
WINDOW 3 0 56 VBottom 2
SYMATTR InstName R9
SYMATTR Value 10k
SYMBOL res 720 336 R90
WINDOW 0 0 56 VBottom 2
WINDOW 3 32 56 VTop 2
SYMATTR InstName R10
SYMATTR Value 10k
SYMBOL res 608 464 R270
WINDOW 0 32 56 VTop 2
WINDOW 3 0 56 VBottom 2
SYMATTR InstName R11
SYMATTR Value 10k
SYMBOL res 736 112 R0
WINDOW 0 34 53 Left 2
WINDOW 3 35 77 Left 2
SYMATTR InstName R12
SYMATTR Value 40k
SYMBOL res 736 384 R0
WINDOW 0 36 53 Left 2
SYMATTR InstName R13
SYMATTR Value 40k
SYMBOL res 880 -32 R90
WINDOW 0 0 56 VBottom 2
WINDOW 3 32 56 VTop 2
SYMATTR InstName R14
SYMATTR Value 40k
SYMBOL res 880 240 R90
WINDOW 0 7 19 VBottom 2
WINDOW 3 30 54 VTop 2
SYMATTR InstName R15
SYMATTR Value 40k
SYMBOL res 512 240 R90
WINDOW 0 0 49 VBottom 2
WINDOW 3 36 57 VTop 2
SYMATTR InstName Rlead_2
SYMATTR Value 2
SYMBOL res 512 336 R90
WINDOW 0 62 47 VBottom 2
WINDOW 3 -31 56 VTop 2
SYMATTR InstName Rlead_3
SYMATTR Value 2
SYMBOL res 512 96 R90
WINDOW 0 0 56 VBottom 2
WINDOW 3 34 59 VTop 2
SYMATTR InstName Rlead_1
SYMATTR Value 2
SYMBOL OpAmps\\opamp2 192 48 R0
WINDOW 0 12 29 Left 2
WINDOW 3 -45 126 Left 2
SYMATTR InstName U1
SYMATTR Value LMV841
SYMBOL OpAmps\\opamp2 208 320 R180
WINDOW 0 14 25 Left 2
WINDOW 3 -133 103 Left 2
SYMATTR InstName U2
SYMATTR Value LMV841
SYMBOL OpAmps\\opamp2 832 48 R0
WINDOW 3 25 96 Left 2
SYMATTR Value LMV841
SYMATTR InstName U3
SYMBOL OpAmps\\opamp2 832 320 R0
WINDOW 3 25 96 Left 2
SYMATTR Value LMV841
SYMATTR InstName U4
TEXT -64 464 Left 2 !.step param R 20 400 10\n.op
TEXT -64 432 Left 2 !.include LMV841.LIB
