Version 4
SHEET 1 880 680
WIRE 192 48 32 48
WIRE 32 112 32 48
WIRE 192 160 192 128
WIRE 32 240 32 192
WIRE 192 240 32 240
FLAG 192 240 0
FLAG 192 160 Vx
SYMBOL res 176 32 R0
SYMATTR InstName R1
SYMATTR Value {R}
SYMBOL res 176 144 R0
SYMATTR InstName R2
SYMATTR Value 1600
SYMBOL voltage 32 96 R0
WINDOW 123 0 0 Left 0
WINDOW 39 0 0 Left 0
SYMATTR InstName V1
SYMATTR Value 5.0
TEXT 32 288 Left 2 !.step param R 1000 200000 1000\n.op
